<?xml version="1.0" encoding="UTF-8"?>

<!-- generated on 02.07.2020 09:27:26 by Eclipse SUMO netedit Version v1_6_0+1075-b57cda1248
<configuration xmlns:xsi="http://www.w3.org/2001/XMLSchema-instance" xsi:noNamespaceSchemaLocation="http://sumo.dlr.de/xsd/netconvertConfiguration.xsd">

    <input>
        <sumo-net-file value="D:\TAVF-HH\network.net.xml"/>
    </input>

    <output>
        <output-file value="D:\TAVF-HH\network.net.xml"/>
        <output.street-names value="true"/>
    </output>

    <processing>
        <geometry.min-radius.fix.railways value="false"/>
        <geometry.max-grade.fix value="false"/>
        <offset.disable-normalization value="true"/>
        <lefthand value="false"/>
    </processing>

    <junctions>
        <no-turnarounds value="true"/>
        <junctions.corner-detail value="5"/>
        <junctions.limit-turn-speed value="5.5"/>
        <rectangular-lane-cut value="false"/>
    </junctions>

    <pedestrian>
        <walkingareas value="false"/>
    </pedestrian>

    <report>
        <aggregate-warnings value="5"/>
    </report>

</configuration>
-->

<net version="1.6" junctionCornerDetail="5" limitTurnSpeed="5.50" xmlns:xsi="http://www.w3.org/2001/XMLSchema-instance" xsi:noNamespaceSchemaLocation="http://sumo.dlr.de/xsd/net_file.xsd">

    <location netOffset="-562751.27,-5932801.54" convBoundary="290.62,313.76,4215.21,3300.04" origBoundary="9.702423,53.533230,10.022106,53.616961" projParameter="+proj=utm +zone=32 +ellps=WGS84 +datum=WGS84 +units=m +no_defs"/>

    <type id="cycleway.lane" allow="bicycle" bikeLaneWidth="1.00"/>
    <type id="cycleway.lane|cycleway.opposite_lane|highway.tertiary" priority="6" numLanes="1" speed="13.89" disallow="pedestrian tram rail_urban rail rail_electric ship" oneway="0" sidewalkWidth="3.00" bikeLaneWidth="1.00"/>
    <type id="cycleway.lane|cycleway.track|highway.secondary" priority="7" numLanes="2" speed="13.89" disallow="pedestrian tram rail_urban rail rail_electric ship" oneway="0" sidewalkWidth="3.00" bikeLaneWidth="1.50"/>
    <type id="cycleway.lane|cycleway.track|highway.tertiary" priority="6" numLanes="1" speed="13.89" disallow="pedestrian tram rail_urban rail rail_electric ship" oneway="0" sidewalkWidth="3.00" bikeLaneWidth="1.50"/>
    <type id="cycleway.lane|highway.primary" priority="9" numLanes="2" speed="13.89" disallow="pedestrian tram rail_urban rail rail_electric ship" oneway="0" sidewalkWidth="3.00" bikeLaneWidth="1.00"/>
    <type id="cycleway.lane|highway.secondary" priority="7" numLanes="2" speed="13.89" disallow="pedestrian tram rail_urban rail rail_electric ship" oneway="0" sidewalkWidth="3.00" bikeLaneWidth="1.00"/>
    <type id="cycleway.lane|highway.secondary_link" priority="6" numLanes="1" speed="13.89" disallow="pedestrian tram rail_urban rail rail_electric ship" oneway="0" sidewalkWidth="3.00" bikeLaneWidth="1.00"/>
    <type id="cycleway.lane|highway.service" priority="2" numLanes="1" speed="13.89" allow="pedestrian delivery bicycle" oneway="0" bikeLaneWidth="1.00"/>
    <type id="cycleway.lane|highway.tertiary" priority="6" numLanes="1" speed="13.89" disallow="pedestrian tram rail_urban rail rail_electric ship" oneway="0" sidewalkWidth="3.00" bikeLaneWidth="1.00"/>
    <type id="cycleway.lane|highway.tertiary_link" priority="5" numLanes="1" speed="13.89" disallow="pedestrian tram rail_urban rail rail_electric ship" oneway="0" sidewalkWidth="2.00" bikeLaneWidth="1.00"/>
    <type id="cycleway.lane|highway.unclassified" priority="5" numLanes="1" speed="13.89" disallow="pedestrian tram rail_urban rail rail_electric ship" oneway="0" sidewalkWidth="2.00" bikeLaneWidth="1.00"/>
    <type id="cycleway.opposite_lane" allow="bicycle" bikeLaneWidth="1.00"/>
    <type id="cycleway.opposite_lane|highway.secondary" priority="7" numLanes="2" speed="13.89" disallow="pedestrian tram rail_urban rail rail_electric ship" oneway="0" sidewalkWidth="3.00" bikeLaneWidth="1.00"/>
    <type id="cycleway.opposite_lane|highway.tertiary" priority="6" numLanes="1" speed="13.89" disallow="pedestrian tram rail_urban rail rail_electric ship" oneway="0" sidewalkWidth="3.00" bikeLaneWidth="1.00"/>
    <type id="cycleway.opposite_lane|highway.unclassified" priority="5" numLanes="1" speed="13.89" disallow="pedestrian tram rail_urban rail rail_electric ship" oneway="0" sidewalkWidth="2.00" bikeLaneWidth="1.00"/>
    <type id="cycleway.opposite_track" allow="bicycle" bikeLaneWidth="1.50"/>
    <type id="cycleway.opposite_track|highway.unclassified" priority="5" numLanes="1" speed="13.89" disallow="pedestrian tram rail_urban rail rail_electric ship" oneway="0" sidewalkWidth="2.00" bikeLaneWidth="1.50"/>
    <type id="cycleway.track" allow="bicycle" bikeLaneWidth="1.50"/>
    <type id="cycleway.track|highway.primary" priority="9" numLanes="2" speed="13.89" disallow="pedestrian tram rail_urban rail rail_electric ship" oneway="0" sidewalkWidth="3.00" bikeLaneWidth="1.50"/>
    <type id="cycleway.track|highway.residential" priority="4" numLanes="1" speed="13.89" disallow="pedestrian tram rail_urban rail rail_electric ship" oneway="0" sidewalkWidth="2.00" bikeLaneWidth="1.50"/>
    <type id="cycleway.track|highway.secondary" priority="7" numLanes="2" speed="13.89" disallow="pedestrian tram rail_urban rail rail_electric ship" oneway="0" sidewalkWidth="3.00" bikeLaneWidth="1.50"/>
    <type id="cycleway.track|highway.service" priority="2" numLanes="1" speed="13.89" allow="pedestrian delivery bicycle" oneway="0" bikeLaneWidth="1.50"/>
    <type id="cycleway.track|highway.tertiary" priority="6" numLanes="1" speed="13.89" disallow="pedestrian tram rail_urban rail rail_electric ship" oneway="0" sidewalkWidth="3.00" bikeLaneWidth="1.50"/>
    <type id="cycleway.track|highway.unclassified" priority="5" numLanes="1" speed="13.89" disallow="pedestrian tram rail_urban rail rail_electric ship" oneway="0" sidewalkWidth="2.00" bikeLaneWidth="1.50"/>
    <type id="highway.bridleway" priority="1" numLanes="1" speed="2.78" allow="pedestrian" oneway="1" width="2.00"/>
    <type id="highway.bus_guideway" priority="1" numLanes="1" speed="13.89" allow="bus" oneway="1"/>
    <type id="highway.cycleway" priority="1" numLanes="1" speed="8.33" allow="bicycle" oneway="0" width="1.00"/>
    <type id="highway.footway" priority="1" numLanes="1" speed="2.78" allow="pedestrian" oneway="1" width="2.00"/>
    <type id="highway.ford" priority="1" numLanes="1" speed="2.78" allow="army" oneway="0"/>
    <type id="highway.living_street" priority="3" numLanes="1" speed="2.78" disallow="tram rail_urban rail rail_electric ship" oneway="0"/>
    <type id="highway.motorway" priority="13" numLanes="2" speed="27.78" allow="private emergency authority army vip passenger hov taxi bus coach delivery truck trailer motorcycle evehicle custom1 custom2" oneway="1"/>
    <type id="highway.motorway_link" priority="12" numLanes="1" speed="16.67" allow="private emergency authority army vip passenger hov taxi bus coach delivery truck trailer motorcycle evehicle custom1 custom2" oneway="1"/>
    <type id="highway.path" priority="1" numLanes="1" speed="2.78" allow="pedestrian bicycle" oneway="1" width="2.00"/>
    <type id="highway.pedestrian" priority="1" numLanes="1" speed="2.78" allow="pedestrian" oneway="1" width="2.00"/>
    <type id="highway.primary" priority="9" numLanes="2" speed="13.89" disallow="pedestrian tram rail_urban rail rail_electric ship" oneway="0" sidewalkWidth="3.00"/>
    <type id="highway.primary_link" priority="8" numLanes="1" speed="13.89" disallow="pedestrian tram rail_urban rail rail_electric ship" oneway="0" sidewalkWidth="3.00"/>
    <type id="highway.raceway" priority="14" numLanes="2" speed="83.33" allow="vip" oneway="0"/>
    <type id="highway.residential" priority="4" numLanes="1" speed="13.89" disallow="pedestrian tram rail_urban rail rail_electric ship" oneway="0" sidewalkWidth="2.00"/>
    <type id="highway.secondary" priority="7" numLanes="2" speed="13.89" disallow="pedestrian tram rail_urban rail rail_electric ship" oneway="0" sidewalkWidth="3.00"/>
    <type id="highway.secondary_link" priority="6" numLanes="1" speed="13.89" disallow="pedestrian tram rail_urban rail rail_electric ship" oneway="0" sidewalkWidth="3.00"/>
    <type id="highway.service" priority="2" numLanes="1" speed="5.56" allow="pedestrian delivery bicycle" oneway="0"/>
    <type id="highway.stairs" priority="1" numLanes="1" speed="1.39" allow="pedestrian" oneway="1" width="2.00"/>
    <type id="highway.step" priority="1" numLanes="1" speed="1.39" allow="pedestrian" oneway="1" width="2.00"/>
    <type id="highway.steps" priority="1" numLanes="1" speed="1.39" allow="pedestrian" oneway="1" width="2.00"/>
    <type id="highway.tertiary" priority="6" numLanes="1" speed="13.89" disallow="pedestrian tram rail_urban rail rail_electric ship" oneway="0" sidewalkWidth="3.00"/>
    <type id="highway.tertiary_link" priority="5" numLanes="1" speed="13.89" disallow="pedestrian tram rail_urban rail rail_electric ship" oneway="0" sidewalkWidth="2.00"/>
    <type id="highway.track" priority="1" numLanes="1" speed="5.56" disallow="tram rail_urban rail rail_electric ship" oneway="0"/>
    <type id="highway.trunk" priority="11" numLanes="2" speed="13.89" disallow="pedestrian bicycle tram rail_urban rail rail_electric ship" oneway="0"/>
    <type id="highway.trunk_link" priority="10" numLanes="1" speed="13.89" disallow="pedestrian bicycle tram rail_urban rail rail_electric ship" oneway="0"/>
    <type id="highway.unclassified" priority="5" numLanes="1" speed="13.89" disallow="pedestrian tram rail_urban rail rail_electric ship" oneway="0" sidewalkWidth="2.00"/>
    <type id="highway.unsurfaced" priority="1" numLanes="1" speed="8.33" disallow="tram rail_urban rail rail_electric ship" oneway="0"/>
    <type id="railway.light_rail" priority="18" numLanes="1" speed="27.78" allow="rail_urban" oneway="1"/>
    <type id="railway.preserved" priority="15" numLanes="1" speed="27.78" allow="rail" oneway="1"/>
    <type id="railway.rail" priority="19" numLanes="1" speed="83.33" allow="rail rail_electric" oneway="1"/>
    <type id="railway.subway" priority="17" numLanes="1" speed="27.78" allow="rail_urban" oneway="1"/>
    <type id="railway.tram" priority="16" numLanes="1" speed="13.89" allow="tram" oneway="1"/>

    <edge id=":105290638_0" function="internal">
        <lane id=":105290638_0_0" index="0" disallow="pedestrian tram rail_urban rail rail_electric rail_fast ship" speed="8.33" length="0.24" shape="2244.00,1013.96 2243.92,1013.73"/>
    </edge>
    <edge id=":105290638_1" function="internal">
        <lane id=":105290638_1_0" index="0" disallow="pedestrian tram rail_urban rail rail_electric rail_fast ship" speed="8.33" length="0.31" shape="2246.95,1012.69 2247.05,1012.99"/>
    </edge>
    <edge id=":1070396278_0" function="internal">
        <lane id=":1070396278_0_0" index="0" disallow="pedestrian tram rail_urban rail rail_electric rail_fast ship" speed="13.89" length="8.26" shape="2566.41,2609.38 2564.98,2611.46 2564.63,2613.33 2564.28,2615.19 2562.83,2617.25"/>
        <lane id=":1070396278_0_1" index="1" disallow="pedestrian tram rail_urban rail rail_electric rail_fast ship" speed="13.89" length="8.26" shape="2566.41,2609.38 2560.63,2614.92"/>
        <lane id=":1070396278_0_2" index="2" disallow="pedestrian tram rail_urban rail rail_electric rail_fast ship" speed="13.89" length="8.26" shape="2564.18,2607.09 2558.43,2612.60"/>
    </edge>
    <edge id=":115337724_0" function="internal">
        <lane id=":115337724_0_0" index="0" disallow="pedestrian bicycle tram rail_urban rail rail_electric rail_fast ship" speed="13.89" length="0.30" shape="2124.04,998.67 2124.14,998.65"/>
        <lane id=":115337724_0_1" index="1" disallow="pedestrian bicycle tram rail_urban rail rail_electric rail_fast ship" speed="13.89" length="0.30" shape="2124.63,1001.81 2124.93,1001.75"/>
        <lane id=":115337724_0_2" index="2" disallow="pedestrian bicycle tram rail_urban rail rail_electric rail_fast ship" speed="13.89" length="0.30" shape="2125.22,1004.96 2125.71,1004.85"/>
    </edge>
    <edge id=":121_0" function="internal">
        <lane id=":121_0_0" index="0" disallow="pedestrian tram rail_urban rail rail_electric rail_fast ship" speed="8.82" length="21.01" shape="2591.20,1076.75 2588.60,1082.40 2588.61,1087.00 2591.22,1090.56 2596.43,1093.07"/>
    </edge>
    <edge id=":121_1" function="internal">
        <lane id=":121_1_0" index="0" disallow="pedestrian bicycle tram rail_urban rail rail_electric rail_fast ship" speed="13.89" length="26.42" shape="2591.20,1076.75 2588.84,1082.93 2588.67,1088.99 2589.09,1095.30 2588.44,1102.19"/>
        <lane id=":121_1_1" index="1" disallow="pedestrian bicycle tram rail_urban rail rail_electric rail_fast ship" speed="13.89" length="26.42" shape="2588.49,1075.04 2586.07,1081.37 2585.76,1087.77 2586.03,1094.42 2585.33,1101.46"/>
    </edge>
    <edge id=":121_3" function="internal">
        <lane id=":121_3_0" index="0" disallow="pedestrian bicycle tram rail_urban rail rail_electric rail_fast ship" speed="13.89" length="28.63" shape="2571.96,1098.33 2574.16,1089.37 2576.60,1082.84 2579.50,1077.37 2583.08,1071.63"/>
        <lane id=":121_3_1" index="1" disallow="pedestrian bicycle tram rail_urban rail rail_electric rail_fast ship" speed="13.89" length="28.63" shape="2575.08,1099.06 2577.17,1090.47 2579.47,1084.25 2582.25,1079.00 2585.79,1073.34"/>
    </edge>
    <edge id=":121_5" function="internal">
        <lane id=":121_5_0" index="0" disallow="pedestrian tram rail_urban rail rail_electric rail_fast ship" speed="9.60" length="10.19" shape="2578.20,1099.79 2580.22,1095.03 2583.93,1092.32 2584.34,1092.27"/>
    </edge>
    <edge id=":121_6" function="internal">
        <lane id=":121_6_0" index="0" disallow="pedestrian tram rail_urban rail rail_electric rail_fast ship" speed="9.60" length="12.26" shape="2584.34,1092.27 2589.33,1091.67 2596.43,1093.07"/>
    </edge>
    <edge id=":1217212991_0" function="internal">
        <lane id=":1217212991_0_0" index="0" disallow="pedestrian bicycle tram rail_urban rail rail_electric rail_fast ship" speed="13.89" length="0.27" shape="2599.44,801.07 2599.61,801.32"/>
        <lane id=":1217212991_0_1" index="1" disallow="pedestrian bicycle tram rail_urban rail rail_electric rail_fast ship" speed="13.89" length="0.27" shape="2596.80,802.87 2596.92,803.05"/>
    </edge>
    <edge id=":122349_0" function="internal">
        <lane id=":122349_0_0" index="0" disallow="pedestrian bicycle tram rail_urban rail rail_electric rail_fast ship" speed="13.89" length="0.14" shape="2524.42,864.13 2524.65,864.05"/>
        <lane id=":122349_0_1" index="1" disallow="pedestrian bicycle tram rail_urban rail rail_electric rail_fast ship" speed="13.89" length="0.14" shape="2525.48,867.15 2525.64,867.09"/>
        <lane id=":122349_0_2" index="2" disallow="pedestrian bicycle tram rail_urban rail rail_electric rail_fast ship" speed="13.89" length="0.14" shape="2526.53,870.17 2526.63,870.14"/>
        <lane id=":122349_0_3" index="3" disallow="pedestrian bicycle tram rail_urban rail rail_electric rail_fast ship" speed="13.89" length="0.14" shape="2527.59,873.19 2527.62,873.18"/>
    </edge>
    <edge id=":122352_0" function="internal">
        <lane id=":122352_0_0" index="0" disallow="pedestrian bicycle tram rail_urban rail rail_electric rail_fast ship" speed="13.89" length="9.87" shape="1610.71,1085.54 1613.24,1083.43 1614.65,1081.46 1616.16,1079.75 1619.03,1078.39"/>
        <lane id=":122352_0_1" index="1" disallow="pedestrian bicycle tram rail_urban rail rail_electric rail_fast ship" speed="13.89" length="9.87" shape="1612.39,1088.26 1614.70,1086.28 1615.95,1084.40 1617.30,1082.75 1619.92,1081.46"/>
        <lane id=":122352_0_2" index="2" disallow="pedestrian bicycle tram rail_urban rail rail_electric rail_fast ship" speed="13.89" length="9.87" shape="1614.07,1090.99 1616.17,1089.13 1617.25,1087.33 1618.43,1085.75 1620.81,1084.53"/>
        <lane id=":122352_0_3" index="3" disallow="pedestrian bicycle tram rail_urban rail rail_electric rail_fast ship" speed="13.89" length="9.87" shape="1614.07,1090.99 1616.20,1089.70 1617.72,1088.92 1619.32,1088.32 1621.71,1087.61"/>
    </edge>
    <edge id=":1332078205_0" function="internal">
        <lane id=":1332078205_0_0" index="0" disallow="pedestrian bicycle tram rail_urban rail rail_electric rail_fast ship" speed="13.89" length="0.20" shape="2285.98,480.52 2285.88,480.51"/>
        <lane id=":1332078205_0_1" index="1" disallow="pedestrian bicycle tram rail_urban rail rail_electric rail_fast ship" speed="13.89" length="0.20" shape="2286.42,477.35 2286.12,477.32"/>
    </edge>
    <edge id=":141316011_0" function="internal">
        <lane id=":141316011_0_0" index="0" disallow="pedestrian bicycle tram rail_urban rail rail_electric rail_fast ship" speed="13.89" length="0.28" shape="2432.09,900.25 2432.28,900.17"/>
        <lane id=":141316011_0_1" index="1" disallow="pedestrian bicycle tram rail_urban rail rail_electric rail_fast ship" speed="13.89" length="0.28" shape="2433.13,903.28 2433.38,903.18"/>
        <lane id=":141316011_0_2" index="2" disallow="pedestrian bicycle tram rail_urban rail rail_electric rail_fast ship" speed="13.89" length="0.28" shape="2434.16,906.31 2434.48,906.18"/>
    </edge>
    <edge id=":141316014_0" function="internal">
        <lane id=":141316014_0_0" index="0" disallow="pedestrian bicycle tram rail_urban rail rail_electric rail_fast ship" speed="13.89" length="0.35" shape="2408.37,908.35 2408.80,908.19"/>
        <lane id=":141316014_0_1" index="1" disallow="pedestrian bicycle tram rail_urban rail rail_electric rail_fast ship" speed="13.89" length="0.35" shape="2409.50,911.34 2409.83,911.22"/>
        <lane id=":141316014_0_2" index="2" disallow="pedestrian bicycle tram rail_urban rail rail_electric rail_fast ship" speed="13.89" length="0.35" shape="2410.64,914.33 2410.87,914.25"/>
    </edge>
    <edge id=":14398561_0" function="internal">
        <lane id=":14398561_0_0" index="0" disallow="pedestrian tram rail_urban rail rail_electric rail_fast ship" speed="13.89" length="8.67" shape="2070.54,1648.07 2069.40,1645.70 2068.51,1644.12 2067.50,1642.62 2065.99,1640.45"/>
        <lane id=":14398561_0_1" index="1" disallow="pedestrian tram rail_urban rail rail_electric rail_fast ship" speed="13.89" length="8.67" shape="2073.03,1645.82 2071.93,1643.57 2071.05,1642.10 2070.07,1640.69 2068.63,1638.64"/>
    </edge>
    <edge id=":14398561_2" function="internal">
        <lane id=":14398561_2_0" index="0" disallow="pedestrian tram rail_urban rail rail_electric rail_fast ship" speed="13.89" length="8.19" shape="2073.90,1635.02 2075.57,1636.55 2077.27,1636.95 2079.05,1637.28 2080.98,1638.60"/>
        <lane id=":14398561_2_1" index="1" disallow="pedestrian tram rail_urban rail rail_electric rail_fast ship" speed="13.89" length="8.19" shape="2071.26,1636.83 2073.01,1638.46 2074.76,1638.93 2076.60,1639.34 2078.61,1640.75"/>
        <lane id=":14398561_2_2" index="2" disallow="pedestrian tram rail_urban rail rail_electric rail_fast ship" speed="13.89" length="8.19" shape="2071.26,1636.83 2072.60,1638.74 2073.58,1640.00 2074.65,1641.20 2076.24,1642.90"/>
    </edge>
    <edge id=":1524336598_0" function="internal">
        <lane id=":1524336598_0_0" index="0" disallow="pedestrian bicycle tram rail_urban rail rail_electric rail_fast ship" speed="13.89" length="0.18" shape="2395.58,2021.46 2395.47,2021.70"/>
        <lane id=":1524336598_0_1" index="1" disallow="pedestrian bicycle tram rail_urban rail rail_electric rail_fast ship" speed="13.89" length="0.18" shape="2392.69,2020.09 2392.62,2020.25"/>
        <lane id=":1524336598_0_2" index="2" disallow="pedestrian bicycle tram rail_urban rail rail_electric rail_fast ship" speed="13.89" length="0.18" shape="2389.80,2018.71 2389.77,2018.80"/>
    </edge>
    <edge id=":1524336621_0" function="internal">
        <lane id=":1524336621_0_0" index="0" disallow="pedestrian bicycle tram rail_urban rail rail_electric rail_fast ship" speed="13.89" length="0.30" shape="2359.27,2096.62 2359.14,2096.90"/>
        <lane id=":1524336621_0_1" index="1" disallow="pedestrian bicycle tram rail_urban rail rail_electric rail_fast ship" speed="13.89" length="0.30" shape="2356.37,2095.28 2356.24,2095.55"/>
        <lane id=":1524336621_0_2" index="2" disallow="pedestrian bicycle tram rail_urban rail rail_electric rail_fast ship" speed="13.89" length="0.30" shape="2353.46,2093.94 2353.33,2094.20"/>
    </edge>
    <edge id=":1524336655_0" function="internal">
        <lane id=":1524336655_0_0" index="0" disallow="pedestrian bicycle tram rail_urban rail rail_electric rail_fast ship" speed="13.89" length="0.94" shape="1856.37,2256.32 1856.34,2255.99 1856.33,2255.77 1856.32,2255.55 1856.32,2255.22"/>
        <lane id=":1524336655_0_1" index="1" disallow="pedestrian bicycle tram rail_urban rail rail_electric rail_fast ship" speed="13.89" length="0.94" shape="1859.56,2256.03 1859.53,2255.80 1859.52,2255.64 1859.52,2255.48 1859.52,2255.24"/>
    </edge>
    <edge id=":1524336655_2" function="internal">
        <lane id=":1524336655_2_0" index="0" disallow="pedestrian bicycle tram rail_urban rail rail_electric rail_fast ship" speed="13.89" length="0.31" shape="1865.92,2255.29 1865.92,2255.34 1865.92,2255.37 1865.92,2255.40 1865.93,2255.45"/>
        <lane id=":1524336655_2_1" index="1" disallow="pedestrian bicycle tram rail_urban rail rail_electric rail_fast ship" speed="13.89" length="0.31" shape="1862.72,2255.27 1862.72,2255.41 1862.72,2255.50 1862.73,2255.60 1862.74,2255.74"/>
    </edge>
    <edge id=":1524487570_0" function="internal">
        <lane id=":1524487570_0_0" index="0" disallow="pedestrian tram rail_urban rail rail_electric rail_fast ship" speed="13.89" length="0.26" shape="2089.31,1812.90 2089.06,1813.13"/>
        <lane id=":1524487570_0_1" index="1" disallow="pedestrian tram rail_urban rail rail_electric rail_fast ship" speed="13.89" length="0.26" shape="2087.10,1810.59 2086.96,1810.72"/>
    </edge>
    <edge id=":1525255882_0" function="internal">
        <lane id=":1525255882_0_0" index="0" disallow="pedestrian bicycle tram rail_urban rail rail_electric rail_fast ship" speed="13.89" length="0.28" shape="2366.04,2681.66 2365.78,2681.67"/>
        <lane id=":1525255882_0_1" index="1" disallow="pedestrian bicycle tram rail_urban rail rail_electric rail_fast ship" speed="13.89" length="0.28" shape="2365.87,2678.46 2365.59,2678.48"/>
    </edge>
    <edge id=":1525255882_2" function="internal">
        <lane id=":1525255882_2_0" index="0" disallow="pedestrian bicycle tram rail_urban rail rail_electric rail_fast ship" speed="13.89" length="0.32" shape="2365.21,2672.09 2365.54,2672.07"/>
        <lane id=":1525255882_2_1" index="1" disallow="pedestrian bicycle tram rail_urban rail rail_electric rail_fast ship" speed="13.89" length="0.32" shape="2365.40,2675.28 2365.70,2675.26"/>
    </edge>
    <edge id=":1561370956_0" function="internal">
        <lane id=":1561370956_0_0" index="0" disallow="pedestrian bicycle tram rail_urban rail rail_electric rail_fast ship" speed="13.89" length="0.32" shape="2604.71,1055.37 2604.68,1055.41 2604.66,1055.43 2604.64,1055.46 2604.62,1055.50"/>
        <lane id=":1561370956_0_1" index="1" disallow="pedestrian bicycle tram rail_urban rail rail_electric rail_fast ship" speed="13.89" length="0.32" shape="2602.19,1053.40 2602.10,1053.52 2602.04,1053.59 2601.99,1053.67 2601.91,1053.79"/>
    </edge>
    <edge id=":1561370956_2" function="internal">
        <lane id=":1561370956_2_0" index="0" disallow="pedestrian bicycle tram rail_urban rail rail_electric rail_fast ship" speed="13.89" length="0.95" shape="2596.50,1050.37 2596.68,1050.10 2596.80,1049.91 2596.94,1049.73 2597.14,1049.47"/>
        <lane id=":1561370956_2_1" index="1" disallow="pedestrian bicycle tram rail_urban rail rail_electric rail_fast ship" speed="13.89" length="0.95" shape="2599.21,1052.08 2599.33,1051.89 2599.42,1051.75 2599.52,1051.62 2599.66,1051.44"/>
    </edge>
    <edge id=":1561370961_0" function="internal">
        <lane id=":1561370961_0_0" index="0" disallow="pedestrian bicycle tram rail_urban rail rail_electric rail_fast ship" speed="13.89" length="0.40" shape="2557.03,1212.00 2557.04,1211.94 2557.04,1211.90 2557.05,1211.86 2557.05,1211.80"/>
        <lane id=":1561370961_0_1" index="1" disallow="pedestrian bicycle tram rail_urban rail rail_electric rail_fast ship" speed="13.89" length="0.40" shape="2560.17,1212.60 2560.20,1212.43 2560.22,1212.31 2560.23,1212.19 2560.25,1212.01"/>
    </edge>
    <edge id=":1561371007_0" function="internal">
        <lane id=":1561371007_0_0" index="0" disallow="pedestrian bicycle tram rail_urban rail rail_electric rail_fast ship" speed="7.09" length="9.70" shape="2501.12,1553.33 2498.36,1553.09 2496.12,1553.64 2494.40,1554.98 2493.21,1557.12"/>
    </edge>
    <edge id=":1561371007_1" function="internal">
        <lane id=":1561371007_1_0" index="0" disallow="pedestrian tram rail_urban rail rail_electric rail_fast ship" speed="7.82" length="14.62" shape="2501.12,1553.33 2497.30,1551.93 2494.98,1549.67 2494.17,1546.53 2494.87,1542.52"/>
    </edge>
    <edge id=":1561371007_2" function="internal">
        <lane id=":1561371007_2_0" index="0" disallow="pedestrian tram rail_urban rail rail_electric rail_fast ship" speed="6.28" length="9.04" shape="2497.91,1543.51 2497.48,1545.99 2497.98,1547.93 2499.41,1549.33 2501.78,1550.20"/>
    </edge>
    <edge id=":1561371007_3" function="internal">
        <lane id=":1561371007_3_0" index="0" disallow="pedestrian bicycle tram rail_urban rail rail_electric rail_fast ship" speed="13.89" length="14.39" shape="2497.91,1543.51 2493.21,1557.12"/>
    </edge>
    <edge id=":1561371007_4" function="internal">
        <lane id=":1561371007_4_0" index="0" disallow="pedestrian bicycle tram rail_urban rail rail_electric rail_fast ship" speed="13.89" length="14.28" shape="2490.21,1556.01 2494.87,1542.52"/>
    </edge>
    <edge id=":1561371007_5" function="internal">
        <lane id=":1561371007_5_0" index="0" disallow="pedestrian bicycle tram rail_urban rail rail_electric rail_fast ship" speed="8.49" length="5.54" shape="2490.21,1556.01 2491.98,1552.78 2493.42,1551.61"/>
    </edge>
    <edge id=":1561371007_6" function="internal">
        <lane id=":1561371007_6_0" index="0" disallow="pedestrian bicycle tram rail_urban rail rail_electric rail_fast ship" speed="8.49" length="8.79" shape="2493.42,1551.61 2494.50,1550.73 2497.77,1549.87 2501.78,1550.20"/>
    </edge>
    <edge id=":1568226503_0" function="internal">
        <lane id=":1568226503_0_0" index="0" disallow="pedestrian bicycle tram rail_urban rail rail_electric rail_fast ship" speed="13.89" length="8.34" shape="2089.12,1647.45 2091.23,1648.93 2093.23,1649.16 2095.24,1649.39 2097.35,1650.87"/>
        <lane id=":1568226503_0_1" index="1" disallow="pedestrian bicycle tram rail_urban rail rail_electric rail_fast ship" speed="13.89" length="8.34" shape="2089.12,1647.45 2090.77,1649.16 2092.03,1650.21 2093.29,1651.26 2094.94,1652.97"/>
        <lane id=":1568226503_0_2" index="2" disallow="pedestrian bicycle tram rail_urban rail rail_electric rail_fast ship" speed="13.89" length="8.34" shape="2086.70,1649.54 2088.35,1651.26 2089.61,1652.31 2090.88,1653.36 2092.53,1655.08"/>
        <lane id=":1568226503_0_3" index="3" disallow="pedestrian bicycle tram rail_urban rail rail_electric rail_fast ship" speed="13.89" length="8.34" shape="2084.29,1651.64 2085.94,1653.36 2087.20,1654.42 2088.46,1655.47 2090.12,1657.18"/>
    </edge>
    <edge id=":1586118650_0" function="internal">
        <lane id=":1586118650_0_0" index="0" disallow="pedestrian bicycle tram rail_urban rail rail_electric rail_fast ship" speed="13.89" length="0.34" shape="1868.63,2113.19 1868.63,2113.56"/>
        <lane id=":1586118650_0_1" index="1" disallow="pedestrian bicycle tram rail_urban rail rail_electric rail_fast ship" speed="13.89" length="0.34" shape="1865.43,2113.17 1865.43,2113.49"/>
    </edge>
    <edge id=":1586118650_2" function="internal">
        <lane id=":1586118650_2_0" index="0" disallow="pedestrian bicycle tram rail_urban rail rail_electric rail_fast ship" speed="13.89" length="0.23" shape="1859.03,2113.35 1859.03,2113.15"/>
        <lane id=":1586118650_2_1" index="1" disallow="pedestrian bicycle tram rail_urban rail rail_electric rail_fast ship" speed="13.89" length="0.23" shape="1862.23,2113.42 1862.23,2113.16"/>
    </edge>
    <edge id=":16712068_0" function="internal">
        <lane id=":16712068_0_0" index="0" disallow="pedestrian bicycle tram rail_urban rail rail_electric rail_fast ship" speed="13.89" length="8.29" shape="2341.67,2682.65 2339.20,2683.18 2337.67,2684.30 2336.13,2685.41 2333.66,2685.92"/>
        <lane id=":16712068_0_1" index="1" disallow="pedestrian bicycle tram rail_urban rail rail_electric rail_fast ship" speed="13.89" length="8.29" shape="2341.67,2682.65 2333.65,2682.72"/>
        <lane id=":16712068_0_2" index="2" disallow="pedestrian bicycle tram rail_urban rail rail_electric rail_fast ship" speed="13.89" length="8.29" shape="2341.63,2679.45 2333.63,2679.52"/>
    </edge>
    <edge id=":16712068_3" function="internal">
        <lane id=":16712068_3_0" index="0" disallow="pedestrian bicycle tram rail_urban rail rail_electric rail_fast ship" speed="13.89" length="7.97" shape="2333.60,2673.12 2341.56,2673.05"/>
        <lane id=":16712068_3_1" index="1" disallow="pedestrian bicycle tram rail_urban rail rail_electric rail_fast ship" speed="13.89" length="7.97" shape="2333.61,2676.32 2341.60,2676.25"/>
    </edge>
    <edge id=":16738089_0" function="internal">