<routes xmlns:xsi="http://www.w3.org/2001/XMLSchema-instance" xsi:noNamespaceSchemaLocation="http://sumo.dlr.de/xsd/routes_file.xsd">
    <trip depart="0.00" departLane="best" departSpeed="max" from="gneE4" id="PKW0" to="143065638#2" type="PKW_special" />
    <trip depart="0.18" departLane="best" departSpeed="max" from="-22131088#0" id="PKW1" to="252843886#0" type="PKW_special" />
    <trip depart="0.36" departLane="best" departSpeed="max" from="-gneE114" id="PKW2" to="35744220#1" type="PKW_special" />
    <trip depart="0.54" departLane="best" departSpeed="max" from="20439110#0" id="PKW3" to="gneE3" type="PKW_special" />
    <trip depart="0.72" departLane="best" departSpeed="max" from="-gneE154" id="PKW4" to="-gneE116" type="PKW_special" />
    <trip depart="0.90" departLane="best" departSpeed="max" from="gneE87" id="PKW5" to="521056835" type="PKW_special" />
    <trip depart="1.08" departLane="best" departSpeed="max" from="4044261#0" id="PKW6" to="521056835" type="PKW_special" />
    <trip depart="1.25" departLane="best" departSpeed="max" from="gneE91" id="PKW7" to="gneE114" type="PKW_special" />
    <trip depart="1.43" departLane="best" departSpeed="max" from="538341579#0" id="PKW8" to="4919145" type="PKW_special" />
    <trip depart="1.61" departLane="best" departSpeed="max" from="-gneE114" id="PKW9" to="39978006#3" type="PKW_special" />
    <trip depart="1.79" departLane="best" departSpeed="max" from="gneE116" id="PKW10" to="-8663642" type="PKW_special" />
    <trip depart="1.97" departLane="best" departSpeed="max" from="24288798#0" id="PKW11" to="44532531" type="PKW_special" />
    <trip depart="2.15" departLane="best" departSpeed="max" from="22649703#3" id="PKW12" to="-gneE116" type="PKW_special" />
    <trip depart="2.33" departLane="best" departSpeed="max" from="-gneE114" id="PKW13" to="-142954639#0" type="PKW_special" />
    <trip depart="2.51" departLane="best" departSpeed="max" from="gneE116" id="PKW14" to="-8663642" type="PKW_special" />
    <trip depart="2.69" departLane="best" departSpeed="max" from="362127466#1" id="PKW15" to="gneE21" type="PKW_special" />
    <trip depart="2.87" departLane="best" departSpeed="max" from="43145235#2" id="PKW16" to="44135328#0" type="PKW_special" />
    <trip depart="3.05" departLane="best" departSpeed="max" from="43145235#2" id="PKW17" to="22744203#1" type="PKW_special" />
    <trip depart="3.23" departLane="best" departSpeed="max" from="391787295#2" id="PKW18" to="44532531" type="PKW_special" />
    <trip depart="3.41" departLane="best" departSpeed="max" from="43145235#2" id="PKW19" to="gneE152" type="PKW_special" />
    <trip depart="3.59" departLane="best" departSpeed="max" from="-521056835" id="PKW20" to="39088985#0.48" type="PKW_special" />
    <trip depart="3.76" departLane="best" departSpeed="max" from="-gneE114" id="PKW21" to="gneE3" type="PKW_special" />
    <trip depart="3.94" departLane="best" departSpeed="max" from="33890764#0" id="PKW22" to="5217066" type="PKW_special" />
    <trip depart="4.12" departLane="best" departSpeed="max" from="391787295#2" id="PKW23" to="44532531" type="PKW_special" />
    <trip depart="4.30" departLane="best" departSpeed="max" from="-gneE114" id="PKW24" to="142944405" type="PKW_special" />
    <trip depart="4.48" departLane="best" departSpeed="max" from="26923040" id="PKW25" to="39978006#3" type="PKW_special" />
    <trip depart="4.66" departLane="best" departSpeed="max" from="391787295#2" id="PKW26" to="44532531" type="PKW_special" />
    <trip depart="4.84" departLane="best" departSpeed="max" from="gneE116" id="PKW27" to="50381783#1" type="PKW_special" />
    <trip depart="5.02" departLane="best" departSpeed="max" from="43145235#2" id="PKW28" to="4275522#2" type="PKW_special" />
    <trip depart="5.20" departLane="best" departSpeed="max" from="52087421#0" id="PKW29" to="4919237#1" type="PKW_special" />
    <trip depart="5.38" departLane="best" departSpeed="max" from="gneE129" id="PKW30" to="51214742#0" type="PKW_special" />
    <trip depart="5.56" departLane="best" departSpeed="max" from="144911428#0" id="PKW31" to="gneE114" type="PKW_special" />
    <trip depart="5.74" departLane="best" departSpeed="max" from="156559295#0" id="PKW32" to="-4919237#2" type="PKW_special" />
    <trip depart="5.92" departLane="best" departSpeed="max" from="gneE129" id="PKW33" to="51214742#0" type="PKW_special" />
    <trip depart="6.09" departLane="best" departSpeed="max" from="-142954639#8" id="PKW34" to="gneE3" type="PKW_special" />
    <trip depart="6.27" departLane="best" departSpeed="max" from="22649703#3" id="PKW35" to="44523403#2" type="PKW_special" />
    <trip depart="6.45" departLane="best" departSpeed="max" from="4044261#0" id="PKW36" to="521045493" type="PKW_special" />
    <trip depart="6.63" departLane="best" departSpeed="max" from="39088985#0" id="PKW37" to="44532531" type="PKW_special" />
    <trip depart="6.81" departLane="best" departSpeed="max" from="252843131#0" id="PKW38" to="51214742#0" type="PKW_special" />
    <trip depart="6.99" departLane="best" departSpeed="max" from="199500676" id="PKW39" to="521045493" type="PKW_special" />
    <trip depart="7.17" departLane="best" departSpeed="max" from="362127466#1" id="PKW40" to="gneE21" type="PKW_special" />
    <trip depart="7.35" departLane="best" departSpeed="max" from="43145235#2" id="PKW41" to="-362127466#1" type="PKW_special" />
    <trip depart="7.53" departLane="best" departSpeed="max" from="142954639#0" id="PKW42" to="143065638#2" type="PKW_special" />
    <trip depart="7.71" departLane="best" departSpeed="max" from="20439110#0" id="PKW43" to="gneE3" type="PKW_special" />
    <trip depart="7.89" departLane="best" departSpeed="max" from="gneE129" id="PKW44" to="51214742#0" type="PKW_special" />
    <trip depart="8.07" departLane="best" departSpeed="max" from="24288798#0" id="PKW45" to="44532531" type="PKW_special" />
    <trip depart="8.25" departLane="best" departSpeed="max" from="22729790#0" id="PKW46" to="39978006#3" type="PKW_special" />
    <trip depart="8.43" departLane="best" departSpeed="max" from="-521056835" id="PKW47" to="24400729#1" type="PKW_special" />
    <trip depart="8.60" departLane="best" departSpeed="max" from="24288798#0" id="PKW48" to="44532531" type="PKW_special" />
    <trip depart="8.78" departLane="best" departSpeed="max" from="gneE116" id="PKW49" to="50381783#1" type="PKW_special" />
    <trip depart="8.96" departLane="best" departSpeed="max" from="43145235#2" id="PKW50" to="gneE114" type="PKW_special" />
    <trip depart="9.14" departLane="best" departSpeed="max" from="-35744220#1" id="PKW51" to="gneE114" type="PKW_special" />
    <trip depart="9.32" departLane="best" departSpeed="max" from="4044261#0" id="PKW52" to="gneE92" type="PKW_special" />
    <trip depart="9.50" departLane="best" departSpeed="max" from="158325319#0" id="PKW53" to="39978006#3" type="PKW_special" />
    <trip depart="9.68" departLane="best" departSpeed="max" from="gneE144" id="PKW54" to="24400729#1" type="PKW_special" />
    <trip depart="9.86" departLane="best" departSpeed="max" from="22649703#3" id="PKW55" to="44523403#2" type="PKW_special" />
    <trip depart="10.04" departLane="best" departSpeed="max" from="52087421#0" id="PKW56" to="26810395#1" type="PKW_special" />
    <trip depart="10.22" departLane="best" departSpeed="max" from="596230215#0" id="PKW57" to="143065638#2" type="PKW_special" />
    <trip depart="10.40" departLane="best" departSpeed="max" from="43145235#2" id="PKW58" to="44135328#0" type="PKW_special" />
    <trip depart="10.58" departLane="best" departSpeed="max" from="gneE94" id="PKW59" to="521056835" type="PKW_special" />
    <trip depart="10.76" departLane="best" departSpeed="max" from="43145235#2" id="PKW60" to="gneE114" type="PKW_special" />
    <trip depart="10.93" departLane="best" departSpeed="max" from="252843131#0" id="PKW61" to="521056835" type="PKW_special" />
    <trip depart="11.11" departLane="best" departSpeed="max" from="-142954639#8" id="PKW62" to="gneE3" type="PKW_special" />
    <trip depart="11.29" departLane="best" departSpeed="max" from="43145235#2" id="PKW63" to="gneE143" type="PKW_special" />
    <trip depart="11.47" departLane="best" departSpeed="max" from="3753109" id="PKW64" to="381750337" type="PKW_special" />
    <trip depart="11.65" departLane="best" departSpeed="max" from="-44135328#0" id="PKW65" to="22131088#0" type="PKW_special" />
    <trip depart="11.83" departLane="best" departSpeed="max" from="-20439110#5" id="PKW66" to="39978006#3" type="PKW_special" />
    <trip depart="12.01" departLane="best" departSpeed="max" from="43145235#2" id="PKW67" to="gneE114" type="PKW_special" />
    <trip depart="12.19" departLane="best" departSpeed="max" from="39088985#0" id="PKW68" to="44532531" type="PKW_special" />
    <trip depart="12.37" departLane="best" departSpeed="max" from="4218887#0" id="PKW69" to="39978006#3" type="PKW_special" />
    <trip depart="12.55" departLane="best" departSpeed="max" from="gneE4" id="PKW70" to="143065638#2" type="PKW_special" />
    <trip depart="12.73" departLane="best" departSpeed="max" from="20439110#0" id="PKW71" to="gneE3" type="PKW_special" />
    <trip depart="12.91" departLane="best" departSpeed="max" from="-22131088#0" id="PKW72" to="252843886#0" type="PKW_special" />
    <trip depart="13.09" departLane="best" departSpeed="max" from="22697609" id="PKW73" to="50381783#1" type="PKW_special" />
    <trip depart="13.26" departLane="best" departSpeed="max" from="551319351#0" id="PKW74" to="495849381#0" type="PKW_special" />
    <trip depart="13.44" departLane="best" departSpeed="max" from="43145235#2" id="PKW75" to="143065638#2" type="PKW_special" />
    <trip depart="13.62" departLane="best" departSpeed="max" from="24288798#0" id="PKW76" to="44532531" type="PKW_special" />
    <trip depart="13.80" departLane="best" departSpeed="max" from="44578241#3" id="PKW77" to="50381783#1" type="PKW_special" />
    <trip depart="13.98" departLane="best" departSpeed="max" from="43145235#2" id="PKW78" to="gneE141" type="PKW_special" />
    <trip depart="14.16" departLane="best" departSpeed="max" from="-44135328#0" id="PKW79" to="51214742#0" type="PKW_special" />
    <trip depart="14.34" departLane="best" departSpeed="max" from="43145235#2" id="PKW80" to="-8663642" type="PKW_special" />
    <trip depart="14.52" departLane="best" departSpeed="max" from="-22131088#0" id="PKW81" to="252843886#0" type="PKW_special" />
    <trip depart="14.70" departLane="best" departSpeed="max" from="43145235#2" id="PKW82" to="gneE114" type="PKW_special" />
    <trip depart="14.88" departLane="best" departSpeed="max" from="gneE4" id="PKW83" to="252843886#0" type="PKW_special" />
    <trip depart="15.06" departLane="best" departSpeed="max" from="-gneE114" id="PKW84" to="4919145" type="PKW_special" />
    <trip depart="15.24" departLane="best" departSpeed="max" from="8300803#3" id="PKW85" to="-551319347#5" type="PKW_special" />
    <trip depart="15.42" departLane="best" departSpeed="max" from="199500676" id="PKW86" to="521045493" type="PKW_special" />
    <trip depart="15.60" departLane="best" departSpeed="max" from="-621072259#0" id="PKW87" to="gneE143" type="PKW_special" />
    <trip depart="15.77" departLane="best" departSpeed="max" from="4044261#0" id="PKW88" to="gneE90" type="PKW_special" />
    <trip depart="15.95" departLane="best" departSpeed="max" from="-5213129#1" id="PKW89" to="50381783#1" type="PKW_special" />
    <trip depart="16.13" departLane="best" departSpeed="max" from="gneE93" id="PKW90" to="381750337" type="PKW_special" />
    <trip depart="16.31" departLane="best" departSpeed="max" from="22729790#0" id="PKW91" to="39978006#3" type="PKW_special" />
    <trip depart="16.49" departLane="best" departSpeed="max" from="43145235#3" id="PKW92" to="gneE114" type="PKW_special" />
    <trip depart="16.67" departLane="best" departSpeed="max" from="gneE111" id="PKW93" to="381750337" type="PKW_special" />
    <trip depart="16.85" departLane="best" departSpeed="max" from="-gneE95" id="PKW94" to="gneE90" type="PKW_special" />
    <trip depart="17.03" departLane="best" departSpeed="max" from="43145235#2" id="PKW95" to="gneE138" type="PKW_special" />
    <trip depart="17.21" departLane="best" departSpeed="max" from="199500676" id="PKW96" to="521045493" type="PKW_special" />
    <trip depart="17.39" departLane="best" departSpeed="max" from="551319351#0" id="PKW97" to="4275522#5" type="PKW_special" />
    <trip depart="17.57" departLane="best" departSpeed="max" from="199500676" id="PKW98" to="495849380" type="PKW_special" />
    <trip depart="17.75" departLane="best" departSpeed="max" from="252843131#0" id="PKW99" to="521045493" type="PKW_special" />
    <trip depart="17.93" departLane="best" departSpeed="max" from="gneE87" id="PKW100" to="521056835" type="PKW_special" />
    <trip depart="18.10" departLane="best" departSpeed="max" from="22649703#3" id="PKW101" to="-gneE116" type="PKW_special" />
    <trip depart="18.28" departLane="best" departSpeed="max" from="199500676" id="PKW102" to="27260008#0" type="PKW_special" />
    <trip depart="18.46" departLane="best" departSpeed="max" from="39088985#0" id="PKW103" to="44532531" type="PKW_special" />
    <trip depart="18.64" departLane="best" departSpeed="max" from="139083719#1" id="PKW104" to="51214742#0" type="PKW_special" />
    <trip depart="18.82" departLane="best" departSpeed="max" from="51193433#5" id="PKW105" to="44532531" type="PKW_special" />
    <trip depart="19.00" departLane="best" departSpeed="max" from="39088985#0" id="PKW106" to="44532531" type="PKW_special" />
    <trip depart="19.18" departLane="best" departSpeed="max" from="43145235#2" id="PKW107" to="22729790#1" type="PKW_special" />
    <trip depart="19.36" departLane="best" departSpeed="max" from="551319347#5" id="PKW108" to="143065638#2" type="PKW_special" />
    <trip depart="19.54" departLane="best" departSpeed="max" from="43145235#2" id="PKW109" to="4275522#2" type="PKW_special" />
    <trip depart="19.72" departLane="best" departSpeed="max" from="39977142" id="PKW110" to="gneE3" type="PKW_special" />
    <trip depart="19.90" departLane="best" departSpeed="max" from="gneE116" id="PKW111" to="50381783#1" type="PKW_special" />
    <trip depart="20.08" departLane="best" departSpeed="max" from="gneE116" id="PKW112" to="35744220#1" type="PKW_special" />
    <trip depart="20.26" departLane="best" departSpeed="max" from="22729790#0" id="PKW113" to="39978006#3" type="PKW_special" />
    <trip depart="20.44" departLane="best" departSpeed="max" from="gneE4" id="PKW114" to="143065638#2" type="PKW_special" />
    <trip depart="20.61" departLane="best" departSpeed="max" from="156559295#0" id="PKW115" to="-252843138#8" type="PKW_special" />
    <trip depart="20.79" departLane="best" departSpeed="max" from="gneE94" id="PKW116" to="521056835" type="PKW_special" />
    <trip depart="20.97" departLane="best" departSpeed="max" from="156559295#0" id="PKW117" to="53666954.27" type="PKW_special" />
    <trip depart="21.15" departLane="best" departSpeed="max" from="-gneE114" id="PKW118" to="gneE3" type="PKW_special" />
    <trip depart="21.33" departLane="best" departSpeed="max" from="362127466#1" id="PKW119" to="gneE21" type="PKW_special" />
    <trip depart="21.51" departLane="best" departSpeed="max" from="199500676" id="PKW120" to="521056835" type="PKW_special" />
    <trip depart="21.69" departLane="best" departSpeed="max" from="24288798#0" id="PKW121" to="44532531" type="PKW_special" />
    <trip depart="21.87" departLane="best" departSpeed="max" from="43145235#2" id="PKW122" to="172289065#2" type="PKW_special" />
    <trip depart="22.05" departLane="best" departSpeed="max" from="4044261#0" id="PKW123" to="252843886#0" type="PKW_special" />
    <trip depart="22.23" departLane="best" departSpeed="max" from="24288798#0" id="PKW124" to="44532531" type="PKW_special" />
    <trip depart="22.41" departLane="best" departSpeed="max" from="gneE93" id="PKW125" to="252843886#0" type="PKW_special" />
    <trip depart="22.59" departLane="best" departSpeed="max" from="-gneE114" id="PKW126" to="142944405" type="PKW_special" />
    <trip depart="22.77" departLane="best" departSpeed="max" from="24288798#0" id="PKW127" to="44532531" type="PKW_special" />
    <trip depart="22.94" departLane="best" departSpeed="max" from="551319351#0" id="PKW128" to="27260008#0" type="PKW_special" />
    <trip depart="23.12" departLane="best" departSpeed="max" from="-35744220#1" id="PKW129" to="gneE95" type="PKW_special" />
    <trip depart="23.30" departLane="best" departSpeed="max" from="-gneE114" id="PKW130" to="142944405" type="PKW_special" />
    <trip depart="23.48" departLane="best" departSpeed="max" from="51193433#5" id="PKW131" to="44532531" type="PKW_special" />
    <trip depart="23.66" departLane="best" departSpeed="max" from="-gneE114" id="PKW132" to="142944405" type="PKW_special" />
    <trip depart="23.84" departLane="best" departSpeed="max" from="gneE129" id="PKW133" to="51214742#0" type="PKW_special" />
    <trip depart="24.02" departLane="best" departSpeed="max" from="52087421#0" id="PKW134" to="26810395#1" type="PKW_special" />
    <trip depart="24.20" departLane="best" departSpeed="max" from="-gneE154" id="PKW135" to="-gneE116" type="PKW_special" />
    <trip depart="24.38" departLane="best" departSpeed="max" from="538341579#0" id="PKW136" to="521056835" type="PKW_special" />
    <trip depart="24.56" departLane="best" departSpeed="max" from="-gneE95" id="PKW137" to="51214742#0" type="PKW_special" />
    <trip depart="24.74" departLane="best" departSpeed="max" from="4044261#0" id="PKW138" to="521056835" type="PKW_special" />
    <trip depart="24.92" departLane="best" departSpeed="max" from="-521056835" id="PKW139" to="39088985#0.48" type="PKW_special" />
    <trip depart="25.10" departLane="best" departSpeed="max" from="gneE87" id="PKW140" to="521056835" type="PKW_special" />
    <trip depart="25.28" departLane="best" departSpeed="max" from="43145235#2" id="PKW141" to="gneE152" type="PKW_special" />
    <trip depart="25.45" departLane="best" departSpeed="max" from="43118549" id="PKW142" to="44135328#0" type="PKW_special" />
    <trip depart="25.63" departLane="best" departSpeed="max" from="gneE94" id="PKW143" to="22744203#1" type="PKW_special" />
    <trip depart="25.81" departLane="best" departSpeed="max" from="-gneE114" id="PKW144" to="35744220#1" type="PKW_special" />
    <trip depart="25.99" departLane="best" departSpeed="max" from="51193433#5" id="PKW145" to="370073262" type="PKW_special" />
    <trip depart="26.17" departLane="best" departSpeed="max" from="gneE4" id="PKW146" to="143065638#2" type="PKW_special" />
    <trip depart="26.35" departLane="best" departSpeed="max" from="52087421#0" id="PKW147" to="4919237#1" type="PKW_special" />
    <trip depart="26.53" departLane="best" departSpeed="max" from="gneE4" id="PKW148" to="143065638#2" type="PKW_special" />
    <trip depart="26.71" departLane="best" departSpeed="max" from="gneE116" id="PKW149" to="158325320#1" type="PKW_special" />
    <trip depart="26.89" departLane="best" departSpeed="max" from="-5213129#1" id="PKW150" to="50381783#1" type="PKW_special" />
    <trip depart="27.07" departLane="best" departSpeed="max" from="-521056835" id="PKW151" to="156559298#0" type="PKW_special" />
    <trip depart="27.25" departLane="best" departSpeed="max" from="20439110#0" id="PKW152" to="gneE3" type="PKW_special" />
    <trip depart="27.43" departLane="best" departSpeed="max" from="gneE4" id="PKW153" to="22744203#1" type="PKW_special" />
    <trip depart="27.61" departLane="best" departSpeed="max" from="-26810395#1" id="PKW154" to="521056835" type="PKW_special" />
    <trip depart="27.78" departLane="best" departSpeed="max" from="-44135328#0" id="PKW155" to="51214742#0" type="PKW_special" />
    <trip depart="27.96" departLane="best" departSpeed="max" from="22649703#3" id="PKW156" to="44135328#0" type="PKW_special" />
    <trip depart="28.14" departLane="best" departSpeed="max" from="139083719#3" id="PKW157" to="51214742#0" type="PKW_special" />
    <trip depart="28.32" departLane="best" departSpeed="max" from="-521056835" id="PKW158" to="156559298#0" type="PKW_special" />
    <trip depart="28.50" departLane="best" departSpeed="max" from="391787295#2" id="PKW159" to="44532531" type="PKW_special" />
    <trip depart="28.68" departLane="best" departSpeed="max" from="551319351#0" id="PKW160" to="143065638#2" type="PKW_special" />
    <trip depart="28.86" departLane="best" departSpeed="max" from="51193433#5" id="PKW161" to="370073262" type="PKW_special" />
    <trip depart="29.04" departLane="best" departSpeed="max" from="gneE116" id="PKW162" to="142954649#3" type="PKW_special" />
    <trip depart="29.22" departLane="best" departSpeed="max" from="gneE91" id="PKW163" to="143065638#2" type="PKW_special" />
    <trip depart="29.40" departLane="best" departSpeed="max" from="252843131#0" id="PKW164" to="521045493" type="PKW_special" />
    <trip depart="29.58" departLane="best" departSpeed="max" from="gneE129" id="PKW165" to="51214742#0" type="PKW_special" />
    <trip depart="29.76" departLane="best" departSpeed="max" from="-26810395#1" id="PKW166" to="39088985#0" type="PKW_special" />
    <trip depart="29.94" departLane="best" departSpeed="max" from="gneE4" id="PKW167" to="39978006#3" type="PKW_special" />
    <trip depart="30.12" departLane="best" departSpeed="max" from="-22131088#0" id="PKW168" to="252843886#0" type="PKW_special" />
    <trip depart="30.29" departLane="best" departSpeed="max" from="gneE129" id="PKW169" to="22744203#1" type="PKW_special" />
    <trip depart="30.47" departLane="best" departSpeed="max" from="gneE94" id="PKW170" to="521056835" type="PKW_special" />
    <trip depart="30.65" departLane="best" departSpeed="max" from="362127466#1" id="PKW171" to="gneE21" type="PKW_special" />
    <trip depart="30.83" departLane="best" departSpeed="max" from="39977142" id="PKW172" to="gneE3" type="PKW_special" />
    <trip depart="31.01" departLane="best" departSpeed="max" from="43145235#2" id="PKW173" to="4275522#2" type="PKW_special" />
    <trip depart="31.19" departLane="best" departSpeed="max" from="43145235#2" id="PKW174" to="gneE152" type="PKW_special" />
    <trip depart="31.37" departLane="best" departSpeed="max" from="43118549" id="PKW175" to="-551319347#5" type="PKW_special" />
    <trip depart="31.55" departLane="best" departSpeed="max" from="24288798#0" id="PKW176" to="44532531" type="PKW_special" />
    <trip depart="31.73" departLane="best" departSpeed="max" from="186239191#1" id="PKW177" to="39978006#3" type="PKW_special" />
    <trip depart="31.91" departLane="best" departSpeed="max" from="gneE129" id="PKW178" to="521045493" type="PKW_special" />
    <trip depart="32.09" departLane="best" departSpeed="max" from="22649703#3" id="PKW179" to="-gneE116" type="PKW_special" />
    <trip depart="32.27" departLane="best" departSpeed="max" from="-22131088#0" id="PKW180" to="gneE152" type="PKW_special" />
    <trip depart="32.45" departLane="best" departSpeed="max" from="gneE87" id="PKW181" to="521056835" type="PKW_special" />
    <trip depart="32.62" departLane="best" departSpeed="max" from="gneE4" id="PKW182" to="gneE152" type="PKW_special" />
    <trip depart="32.80" departLane="best" departSpeed="max" from="43145235#2" id="PKW183" to="gneE143" type="PKW_special" />
    <trip depart="32.98" departLane="best" departSpeed="max" from="199500676" id="PKW184" to="521045493" type="PKW_special" />
    <trip depart="33.16" departLane="best" departSpeed="max" from="-35744220#1" id="PKW185" to="gneE114" type="PKW_special" />
    <trip depart="33.34" departLane="best" departSpeed="max" from="362127466#1" id="PKW186" to="gneE21" type="PKW_special" />
    <trip depart="33.52" departLane="best" departSpeed="max" from="199500676" id="PKW187" to="521045493" type="PKW_special" />
    <trip depart="33.70" departLane="best" departSpeed="max" from="22729790#0" id="PKW188" to="39978006#3" type="PKW_special" />
    <trip depart="33.88" departLane="best" departSpeed="max" from="4218887#0" id="PKW189" to="39978006#3" type="PKW_special" />
    <trip depart="34.06" departLane="best" departSpeed="max" from="43145235#2" id="PKW190" to="gneE138" type="PKW_special" />
    <trip depart="34.24" departLane="best" departSpeed="max" from="24288798#0" id="PKW191" to="44532531" type="PKW_special" />
    <trip depart="34.42" departLane="best" departSpeed="max" from="551319351#0" id="PKW192" to="495849380" type="PKW_special" />
    <trip depart="34.60" departLane="best" departSpeed="max" from="-26810395#1" id="PKW193" to="521056835" type="PKW_special" />
    <trip depart="34.78" departLane="best" departSpeed="max" from="252843131#0" id="PKW194" to="521045493" type="PKW_special" />
    <trip depart="34.95" departLane="best" departSpeed="max" from="43145235#2" id="PKW195" to="gneE3" type="PKW_special" />
    <trip depart="35.13" departLane="best" departSpeed="max" from="gneE89" id="PKW196" to="521045493" type="PKW_special" />
    <trip depart="35.31" departLane="best" departSpeed="max" from="43145235#2" id="PKW197" to="gneE108" type="PKW_special" />
    <trip depart="35.49" departLane="best" departSpeed="max" from="199500676" id="PKW198" to="495849380" type="PKW_special" />
    <trip depart="35.67" departLane="best" departSpeed="max" from="43145235#2" id="PKW199" to="172289065#2" type="PKW_special" />
    <trip depart="35.85" departLane="best" departSpeed="max" from="220109544" id="PKW200" to="521045493" type="PKW_special" />
    <trip depart="36.03" departLane="best" departSpeed="max" from="362127466#1" id="PKW201" to="gneE21" type="PKW_special" />
    <trip depart="36.21" departLane="best" departSpeed="max" from="6243477#1" id="PKW202" to="381750337" type="PKW_special" />
    <trip depart="36.39" departLane="best" departSpeed="max" from="538341579#0" id="PKW203" to="495849380" type="PKW_special" />
    <trip depart="36.57" departLane="best" departSpeed="max" from="39088985#0" id="PKW204" to="44532531" type="PKW_special" />
    <trip depart="36.75" departLane="best" departSpeed="max" from="gneE4" id="PKW205" to="35744220#1" type="PKW_special" />
    <trip depart="36.93" departLane="best" departSpeed="max" from="22649703#3" id="PKW206" to="23917006#0" type="PKW_special" />
    <trip depart="37.11" departLane="best" departSpeed="max" from="22729790#0" id="PKW207" to="39978006#3" type="PKW_special" />
    <trip depart="37.29" departLane="best" departSpeed="max" from="-678902926#1" id="PKW208" to="39978006#3" type="PKW_special" />
    <trip depart="37.46" departLane="best" departSpeed="max" from="8300803#3" id="PKW209" to="-551319347#5" type="PKW_special" />
    <trip depart="37.64" departLane="best" departSpeed="max" from="gneE4" id="PKW210" to="381750337" type="PKW_special" />
    <trip depart="37.82" departLane="best" departSpeed="max" from="gneE116" id="PKW211" to="35744220#1" type="PKW_special" />
    <trip depart="38.00" departLane="best" departSpeed="max" from="8663642" id="PKW212" to="521056835" type="PKW_special" />
    <trip depart="38.36" departLane="best" departSpeed="max" from="24288798#0" id="PKW214" to="44532531" type="PKW_special" />
    <trip depart="38.54" departLane="best" departSpeed="max" from="391787295#2" id="PKW215" to="44532531" type="PKW_special" />
    <trip depart="38.72" departLane="best" departSpeed="max" from="51193433#5" id="PKW216" to="44532531" type="PKW_special" />
    <trip depart="38.90" departLane="best" departSpeed="max" from="-23917006#0" id="PKW217" to="20439102#4" type="PKW_special" />
    <trip depart="39.08" departLane="best" departSpeed="max" from="39088985#0" id="PKW218" to="44532531" type="PKW_special" />
    <trip depart="39.26" departLane="best" departSpeed="max" from="43145235#2" id="PKW219" to="172289065#2" type="PKW_special" />
    <trip depart="39.44" departLane="best" departSpeed="max" from="-gneE114" id="PKW220" to="142944405" type="PKW_special" />
    <trip depart="39.62" departLane="best" departSpeed="max" from="551319351#0" id="PKW221" to="521045493" type="PKW_special" />
    <trip depart="39.79" departLane="best" departSpeed="max" from="22729790#0" id="PKW222" to="39978006#3" type="PKW_special" />
    <trip depart="39.97" departLane="best" departSpeed="max" from="158325319#0" id="PKW223" to="39978006#3" type="PKW_special" />
    <trip depart="40.15" departLane="best" departSpeed="max" from="-35744220#1" id="PKW224" to="gneE3" type="PKW_special" />
    <trip depart="40.33" departLane="best" departSpeed="max" from="gneE116" id="PKW225" to="50381783#1" type="PKW_special" />
    <trip depart="40.51" departLane="best" departSpeed="max" from="-gneE114" id="PKW226" to="-142954639#0" type="PKW_special" />
    <trip depart="40.69" departLane="best" departSpeed="max" from="51193433#5" id="PKW227" to="370073262" type="PKW_special" />
    <trip depart="40.87" departLane="best" departSpeed="max" from="8663642" id="PKW228" to="381750337" type="PKW_special" />
    <trip depart="41.05" departLane="best" departSpeed="max" from="-gneE114" id="PKW229" to="gneE130" type="PKW_special" />
    <trip depart="41.23" departLane="best" departSpeed="max" from="-142954639#8" id="PKW230" to="gneE3" type="PKW_special" />
    <trip depart="41.41" departLane="best" departSpeed="max" from="43145235#3" id="PKW231" to="gneE114" type="PKW_special" />
    <trip depart="41.59" departLane="best" departSpeed="max" from="43145235#2" id="PKW232" to="184557791#1" type="PKW_special" />
    <trip depart="41.77" departLane="best" departSpeed="max" from="538341579#0" id="PKW233" to="521056835" type="PKW_special" />
    <trip depart="41.95" departLane="best" departSpeed="max" from="gneE4" id="PKW234" to="gneE143" type="PKW_special" />